<nodes>
    <node id="632" x="500" y="2000"/>
    <node id="633" x="500" y="1800"/>
    <node id="634" x="500" y="1600"/>
    <node id="645" x="800" y="2300"/>
    <node id="646" x="1000" y="2300"/>
    <node id="650" x="0" y="2000"/>
    <node id="671" x="1300" y="2000"/>
    <node id="675" x="1300" y="1500"/>
    <node id="680" x="1800" y="2000"/>
    <node id="684" x="1300" y="2300"/>
    <node id="611" x="1600" y="2300"/>
    <node id="652" x="1300" y="2800"/>
</nodes>