<configuration>
    <input>
        <net-file value="ieee13.net.xml"/>
        <route-files value="traffic.rou.xml"/>
    </input>
    <time>
        <begin value="0"/>
    </time>
</configuration>