<routes>
    <vType id="car_type" accel="2.6" decel="4.5" length="5" maxSpeed="13.89" />
    <vType id="ev_type" accel="3.0" decel="4.5" length="5" maxSpeed="13.89" />
    <route id="route_main" edges="L_650_632 L_632_671 L_671_680" />
    <route id="route_side_1" edges="L_650_632 L_632_645 L_645_646" />
    <route id="route_side_2" edges="L_671_684 L_684_611" />
    <route id="route_side_3" edges="L_671_684 L_684_652" />
    <route id="route_to_634" edges="L_650_632 L_632_633 L_633_634" />
    <route id="route_to_675" edges="L_650_632 L_632_671 L_671_675" />
    <vehicle id="veh_4" type="car_type" route="route_side_1" depart="6.01" />
    <vehicle id="veh_7" type="ev_type" route="route_main" depart="333.95" />
    <vehicle id="veh_27" type="ev_type" route="route_side_1" depart="553.54" />
    <vehicle id="veh_22" type="car_type" route="route_main" depart="680.62" />
    <vehicle id="veh_19" type="car_type" route="route_to_675" depart="942.79" />
    <vehicle id="veh_9" type="ev_type" route="route_side_3" depart="955.16" />
    <vehicle id="veh_8" type="ev_type" route="route_main" depart="1050.49" />
    <vehicle id="veh_6" type="ev_type" route="route_main" depart="1135.65" />
    <vehicle id="veh_10" type="car_type" route="route_side_2" depart="1236.46" />
    <vehicle id="veh_23" type="ev_type" route="route_to_675" depart="1308.66" />
    <vehicle id="veh_1" type="ev_type" route="route_main" depart="1364.85" />
    <vehicle id="veh_21" type="ev_type" route="route_side_3" depart="1395.56" />
    <vehicle id="veh_20" type="ev_type" route="route_to_634" depart="1408.30" />
    <vehicle id="veh_24" type="car_type" route="route_side_1" depart="1460.59" />
    <vehicle id="veh_29" type="ev_type" route="route_side_1" depart="1642.83" />
    <vehicle id="veh_3" type="ev_type" route="route_side_2" depart="2019.46" />
    <vehicle id="veh_15" type="car_type" route="route_to_675" depart="2147.42" />
    <vehicle id="veh_25" type="ev_type" route="route_main" depart="2299.68" />
    <vehicle id="veh_16" type="car_type" route="route_to_634" depart="2406.49" />
    <vehicle id="veh_14" type="car_type" route="route_side_3" depart="2465.41" />
    <vehicle id="veh_26" type="car_type" route="route_to_675" depart="2593.06" />
    <vehicle id="veh_28" type="ev_type" route="route_side_3" depart="2705.94" />
    <vehicle id="veh_0" type="ev_type" route="route_main" depart="2768.24" />
    <vehicle id="veh_12" type="car_type" route="route_to_634" depart="2913.62" />
    <vehicle id="veh_18" type="car_type" route="route_to_675" depart="2952.68" />
    <vehicle id="veh_11" type="car_type" route="route_side_1" depart="2956.58" />
    <vehicle id="veh_17" type="ev_type" route="route_main" depart="3050.43" />
    <vehicle id="veh_2" type="ev_type" route="route_side_2" depart="3067.51" />
    <vehicle id="veh_5" type="ev_type" route="route_main" depart="3163.07" />
    <vehicle id="veh_13" type="ev_type" route="route_side_3" depart="3214.59" />
    <vehicle id="veh_39" type="ev_type" route="route_side_3" depart="3831.29" />
    <vehicle id="veh_56" type="ev_type" route="route_to_634" depart="3889.30" />
    <vehicle id="veh_52" type="ev_type" route="route_to_634" depart="3977.20" />
    <vehicle id="veh_50" type="ev_type" route="route_main" depart="4170.88" />
    <vehicle id="veh_58" type="car_type" route="route_main" depart="4298.99" />
    <vehicle id="veh_55" type="ev_type" route="route_side_2" depart="4552.37" />
    <vehicle id="veh_37" type="ev_type" route="route_to_634" depart="4805.39" />
    <vehicle id="veh_44" type="ev_type" route="route_side_3" depart="4926.56" />
    <vehicle id="veh_40" type="car_type" route="route_side_1" depart="4939.59" />
    <vehicle id="veh_34" type="ev_type" route="route_to_634" depart="4958.85" />
    <vehicle id="veh_46" type="car_type" route="route_to_634" depart="4990.49" />
    <vehicle id="veh_42" type="car_type" route="route_to_634" depart="4993.95" />
    <vehicle id="veh_35" type="ev_type" route="route_to_675" depart="5055.15" />
    <vehicle id="veh_31" type="car_type" route="route_to_675" depart="5113.29" />
    <vehicle id="veh_33" type="car_type" route="route_main" depart="5159.52" />
    <vehicle id="veh_47" type="ev_type" route="route_side_1" depart="5237.07" />
    <vehicle id="veh_32" type="ev_type" route="route_main" depart="5437.15" />
    <vehicle id="veh_51" type="ev_type" route="route_to_634" depart="5452.99" />
    <vehicle id="veh_45" type="ev_type" route="route_side_2" depart="5461.57" />
    <vehicle id="veh_59" type="ev_type" route="route_main" depart="5760.37" />
    <vehicle id="veh_38" type="ev_type" route="route_to_675" depart="5889.90" />
    <vehicle id="veh_49" type="car_type" route="route_to_675" depart="6007.80" />
    <vehicle id="veh_30" type="ev_type" route="route_side_2" depart="6065.88" />
    <vehicle id="veh_57" type="ev_type" route="route_side_1" depart="6329.21" />
    <vehicle id="veh_43" type="ev_type" route="route_to_675" depart="6380.83" />
    <vehicle id="veh_41" type="ev_type" route="route_main" depart="6569.12" />
    <vehicle id="veh_48" type="ev_type" route="route_side_3" depart="6735.88" />
    <vehicle id="veh_53" type="car_type" route="route_side_1" depart="6816.36" />
    <vehicle id="veh_54" type="ev_type" route="route_side_2" depart="6947.34" />
    <vehicle id="veh_36" type="car_type" route="route_side_2" depart="7040.76" />
    <vehicle id="veh_68" type="ev_type" route="route_to_634" depart="7640.34" />
    <vehicle id="veh_61" type="car_type" route="route_to_634" depart="7687.61" />
    <vehicle id="veh_86" type="ev_type" route="route_to_634" depart="7709.59" />
    <vehicle id="veh_81" type="ev_type" route="route_side_2" depart="8094.29" />
    <vehicle id="veh_78" type="ev_type" route="route_side_3" depart="8274.65" />
    <vehicle id="veh_70" type="car_type" route="route_side_3" depart="8335.82" />
    <vehicle id="veh_79" type="ev_type" route="route_to_675" depart="8368.90" />
    <vehicle id="veh_64" type="car_type" route="route_side_3" depart="8425.88" />
    <vehicle id="veh_71" type="ev_type" route="route_side_3" depart="8434.92" />
    <vehicle id="veh_69" type="ev_type" route="route_side_3" depart="8502.63" />
    <vehicle id="veh_73" type="car_type" route="route_side_3" depart="8551.21" />
    <vehicle id="veh_72" type="car_type" route="route_side_1" depart="8576.55" />
    <vehicle id="veh_84" type="ev_type" route="route_main" depart="8741.23" />
    <vehicle id="veh_85" type="ev_type" route="route_side_1" depart="8918.36" />
    <vehicle id="veh_76" type="ev_type" route="route_side_2" depart="9010.19" />
    <vehicle id="veh_60" type="ev_type" route="route_to_634" depart="9135.66" />
    <vehicle id="veh_82" type="car_type" route="route_to_634" depart="9269.85" />
    <vehicle id="veh_87" type="car_type" route="route_side_1" depart="9351.69" />
    <vehicle id="veh_89" type="car_type" route="route_side_2" depart="9740.70" />
    <vehicle id="veh_63" type="car_type" route="route_side_2" depart="9769.55" />
    <vehicle id="veh_62" type="car_type" route="route_side_3" depart="9830.02" />
    <vehicle id="veh_80" type="car_type" route="route_side_2" depart="10227.06" />
    <vehicle id="veh_74" type="ev_type" route="route_side_1" depart="10282.79" />
    <vehicle id="veh_66" type="car_type" route="route_main" depart="10433.77" />
    <vehicle id="veh_88" type="ev_type" route="route_to_634" depart="10438.50" />
    <vehicle id="veh_75" type="ev_type" route="route_main" depart="10518.06" />
    <vehicle id="veh_65" type="car_type" route="route_to_634" depart="10529.85" />
    <vehicle id="veh_77" type="car_type" route="route_main" depart="10599.20" />
    <vehicle id="veh_83" type="car_type" route="route_side_2" depart="10637.48" />
    <vehicle id="veh_67" type="car_type" route="route_to_634" depart="10693.26" />
    <vehicle id="veh_119" type="ev_type" route="route_to_634" depart="10862.72" />
    <vehicle id="veh_107" type="ev_type" route="route_main" depart="10950.63" />
    <vehicle id="veh_93" type="ev_type" route="route_side_3" depart="10956.26" />
    <vehicle id="veh_105" type="ev_type" route="route_side_1" depart="11064.38" />
    <vehicle id="veh_101" type="ev_type" route="route_side_3" depart="11199.41" />
    <vehicle id="veh_103" type="ev_type" route="route_side_3" depart="11284.42" />
    <vehicle id="veh_94" type="ev_type" route="route_to_675" depart="11393.17" />
    <vehicle id="veh_95" type="ev_type" route="route_to_634" depart="11397.34" />
    <vehicle id="veh_92" type="car_type" route="route_side_2" depart="11404.87" />
    <vehicle id="veh_111" type="car_type" route="route_side_2" depart="11563.24" />
    <vehicle id="veh_113" type="ev_type" route="route_side_3" depart="11599.38" />
    <vehicle id="veh_97" type="ev_type" route="route_side_3" depart="11606.89" />
    <vehicle id="veh_110" type="ev_type" route="route_main" depart="11817.17" />
    <vehicle id="veh_116" type="ev_type" route="route_main" depart="11832.43" />
    <vehicle id="veh_109" type="car_type" route="route_to_675" depart="11848.98" />
    <vehicle id="veh_90" type="car_type" route="route_main" depart="11954.24" />
    <vehicle id="veh_114" type="car_type" route="route_side_3" depart="12206.42" />
    <vehicle id="veh_106" type="car_type" route="route_main" depart="12284.00" />
    <vehicle id="veh_102" type="ev_type" route="route_to_675" depart="12369.64" />
    <vehicle id="veh_98" type="ev_type" route="route_main" depart="12393.76" />
    <vehicle id="veh_100" type="ev_type" route="route_main" depart="13087.76" />
    <vehicle id="veh_112" type="ev_type" route="route_side_2" depart="13629.88" />
    <vehicle id="veh_99" type="ev_type" route="route_side_2" depart="13706.55" />
    <vehicle id="veh_96" type="car_type" route="route_to_634" depart="13822.70" />
    <vehicle id="veh_108" type="car_type" route="route_to_675" depart="13992.33" />
    <vehicle id="veh_91" type="ev_type" route="route_to_675" depart="13995.81" />
    <vehicle id="veh_117" type="ev_type" route="route_to_675" depart="14085.46" />
    <vehicle id="veh_118" type="ev_type" route="route_side_3" depart="14135.30" />
    <vehicle id="veh_104" type="car_type" route="route_side_1" depart="14300.63" />
    <vehicle id="veh_115" type="ev_type" route="route_main" depart="14341.22" />
    <vehicle id="veh_134" type="ev_type" route="route_to_675" depart="14434.35" />
    <vehicle id="veh_129" type="car_type" route="route_main" depart="14602.93" />
    <vehicle id="veh_136" type="ev_type" route="route_main" depart="14608.64" />
    <vehicle id="veh_145" type="ev_type" route="route_side_2" depart="14687.59" />
    <vehicle id="veh_130" type="ev_type" route="route_to_675" depart="14725.03" />
    <vehicle id="veh_127" type="ev_type" route="route_main" depart="14753.56" />
    <vehicle id="veh_121" type="ev_type" route="route_main" depart="14780.62" />
    <vehicle id="veh_125" type="ev_type" route="route_side_3" depart="14906.06" />
    <vehicle id="veh_124" type="ev_type" route="route_side_3" depart="15047.27" />
    <vehicle id="veh_149" type="car_type" route="route_side_1" depart="15139.23" />
    <vehicle id="veh_137" type="ev_type" route="route_side_1" depart="15437.04" />
    <vehicle id="veh_143" type="car_type" route="route_side_2" depart="15528.50" />
    <vehicle id="veh_146" type="car_type" route="route_to_634" depart="15572.30" />
    <vehicle id="veh_133" type="ev_type" route="route_side_3" depart="15629.25" />
    <vehicle id="veh_135" type="ev_type" route="route_side_3" depart="15644.00" />
    <vehicle id="veh_120" type="ev_type" route="route_side_2" depart="15706.05" />
    <vehicle id="veh_141" type="car_type" route="route_to_634" depart="15723.88" />
    <vehicle id="veh_148" type="car_type" route="route_side_1" depart="15836.66" />
    <vehicle id="veh_131" type="car_type" route="route_side_2" depart="15982.11" />
    <vehicle id="veh_144" type="car_type" route="route_side_2" depart="16222.90" />
    <vehicle id="veh_122" type="car_type" route="route_main" depart="16534.16" />
    <vehicle id="veh_147" type="car_type" route="route_to_675" depart="16546.79" />
    <vehicle id="veh_123" type="ev_type" route="route_main" depart="17209.84" />
    <vehicle id="veh_138" type="ev_type" route="route_main" depart="17225.96" />
    <vehicle id="veh_126" type="car_type" route="route_side_1" depart="17239.80" />
    <vehicle id="veh_132" type="car_type" route="route_side_1" depart="17340.87" />
    <vehicle id="veh_139" type="car_type" route="route_to_675" depart="17494.55" />
    <vehicle id="veh_142" type="car_type" route="route_side_3" depart="17556.52" />
    <vehicle id="veh_140" type="car_type" route="route_side_2" depart="17698.18" />
    <vehicle id="veh_128" type="ev_type" route="route_side_3" depart="17773.06" />
    <vehicle id="veh_152" type="ev_type" route="route_to_675" depart="18112.02" />
    <vehicle id="veh_162" type="car_type" route="route_main" depart="18336.85" />
    <vehicle id="veh_171" type="ev_type" route="route_main" depart="18439.26" />
    <vehicle id="veh_157" type="car_type" route="route_side_2" depart="18468.33" />
    <vehicle id="veh_151" type="car_type" route="route_to_634" depart="18588.08" />
    <vehicle id="veh_179" type="car_type" route="route_side_1" depart="18612.55" />
    <vehicle id="veh_154" type="car_type" route="route_side_2" depart="18662.41" />
    <vehicle id="veh_177" type="car_type" route="route_side_3" depart="18763.08" />
    <vehicle id="veh_158" type="ev_type" route="route_to_634" depart="18935.94" />
    <vehicle id="veh_169" type="ev_type" route="route_to_634" depart="18960.05" />
    <vehicle id="veh_150" type="ev_type" route="route_side_3" depart="19019.88" />
    <vehicle id="veh_176" type="car_type" route="route_side_2" depart="19025.59" />
    <vehicle id="veh_160" type="ev_type" route="route_side_2" depart="19032.84" />
    <vehicle id="veh_161" type="car_type" route="route_to_675" depart="19110.28" />
    <vehicle id="veh_156" type="ev_type" route="route_main" depart="19300.00" />
    <vehicle id="veh_166" type="ev_type" route="route_side_1" depart="19394.70" />
    <vehicle id="veh_172" type="ev_type" route="route_side_2" depart="20046.32" />
    <vehicle id="veh_174" type="car_type" route="route_side_2" depart="20150.81" />
    <vehicle id="veh_155" type="ev_type" route="route_to_675" depart="20176.90" />
    <vehicle id="veh_159" type="car_type" route="route_main" depart="20398.43" />
    <vehicle id="veh_153" type="car_type" route="route_to_675" depart="20420.88" />
    <vehicle id="veh_173" type="car_type" route="route_to_634" depart="20571.53" />
    <vehicle id="veh_168" type="car_type" route="route_side_1" depart="20890.59" />
    <vehicle id="veh_164" type="ev_type" route="route_side_3" depart="20943.42" />
    <vehicle id="veh_170" type="ev_type" route="route_side_3" depart="20981.04" />
    <vehicle id="veh_178" type="ev_type" route="route_main" depart="21117.97" />
    <vehicle id="veh_167" type="ev_type" route="route_side_1" depart="21296.75" />
    <vehicle id="veh_163" type="ev_type" route="route_main" depart="21356.26" />
    <vehicle id="veh_165" type="car_type" route="route_side_2" depart="21394.72" />
    <vehicle id="veh_175" type="car_type" route="route_side_2" depart="21575.04" />
    <vehicle id="veh_324" type="ev_type" route="route_to_675" depart="21620.37" />
    <vehicle id="veh_351" type="car_type" route="route_side_1" depart="21725.68" />
    <vehicle id="veh_206" type="ev_type" route="route_side_1" depart="21742.84" />
    <vehicle id="veh_329" type="ev_type" route="route_to_675" depart="21794.96" />
    <vehicle id="veh_341" type="ev_type" route="route_main" depart="21799.36" />
    <vehicle id="veh_334" type="ev_type" route="route_side_3" depart="21802.62" />
    <vehicle id="veh_274" type="ev_type" route="route_to_634" depart="21827.44" />
    <vehicle id="veh_184" type="ev_type" route="route_side_1" depart="21922.89" />
    <vehicle id="veh_197" type="car_type" route="route_to_634" depart="21929.85" />
    <vehicle id="veh_211" type="ev_type" route="route_to_675" depart="21957.96" />
    <vehicle id="veh_356" type="car_type" route="route_side_2" depart="21982.88" />
    <vehicle id="veh_297" type="ev_type" route="route_to_675" depart="22027.33" />
    <vehicle id="veh_310" type="ev_type" route="route_side_2" depart="22058.10" />
    <vehicle id="veh_240" type="ev_type" route="route_to_634" depart="22062.74" />
    <vehicle id="veh_268" type="ev_type" route="route_to_634" depart="22065.54" />
    <vehicle id="veh_193" type="car_type" route="route_to_675" depart="22089.38" />
    <vehicle id="veh_219" type="ev_type" route="route_main" depart="22105.09" />
    <vehicle id="veh_257" type="ev_type" route="route_side_2" depart="22146.14" />
    <vehicle id="veh_292" type="ev_type" route="route_to_634" depart="22175.01" />
    <vehicle id="veh_216" type="ev_type" route="route_side_3" depart="22235.24" />
    <vehicle id="veh_318" type="ev_type" route="route_side_1" depart="22245.98" />
    <vehicle id="veh_234" type="car_type" route="route_main" depart="22264.76" />
    <vehicle id="veh_254" type="ev_type" route="route_to_634" depart="22267.55" />
    <vehicle id="veh_246" type="car_type" route="route_main" depart="22305.45" />
    <vehicle id="veh_262" type="ev_type" route="route_side_1" depart="22308.79" />
    <vehicle id="veh_350" type="car_type" route="route_to_675" depart="22315.71" />
    <vehicle id="veh_304" type="car_type" route="route_to_634" depart="22335.52" />
    <vehicle id="veh_239" type="car_type" route="route_side_2" depart="22340.98" />
    <vehicle id="veh_192" type="ev_type" route="route_main" depart="22377.57" />
    <vehicle id="veh_261" type="car_type" route="route_to_634" depart="22397.89" />
    <vehicle id="veh_325" type="car_type" route="route_side_3" depart="22411.64" />
    <vehicle id="veh_258" type="car_type" route="route_side_2" depart="22415.01" />
    <vehicle id="veh_293" type="ev_type" route="route_side_1" depart="22423.78" />
    <vehicle id="veh_342" type="ev_type" route="route_side_3" depart="22424.65" />
    <vehicle id="veh_272" type="ev_type" route="route_to_634" depart="22454.80" />
    <vehicle id="veh_288" type="ev_type" route="route_side_1" depart="22455.04" />
    <vehicle id="veh_332" type="car_type" route="route_side_1" depart="22471.03" />
    <vehicle id="veh_201" type="ev_type" route="route_to_675" depart="22486.65" />
    <vehicle id="veh_195" type="ev_type" route="route_to_675" depart="22547.50" />
    <vehicle id="veh_303" type="ev_type" route="route_side_2" depart="22557.65" />
    <vehicle id="veh_333" type="ev_type" route="route_to_675" depart="22595.43" />
    <vehicle id="veh_224" type="ev_type" route="route_side_1" depart="22596.09" />
    <vehicle id="veh_353" type="ev_type" route="route_side_3" depart="22632.97" />
    <vehicle id="veh_348" type="ev_type" route="route_side_3" depart="22647.82" />
    <vehicle id="veh_279" type="car_type" route="route_side_1" depart="22668.13" />
    <vehicle id="veh_194" type="car_type" route="route_to_634" depart="22687.07" />
    <vehicle id="veh_306" type="ev_type" route="route_to_634" depart="22688.98" />
    <vehicle id="veh_291" type="ev_type" route="route_side_3" depart="22719.29" />
    <vehicle id="veh_227" type="car_type" route="route_side_3" depart="22746.89" />
    <vehicle id="veh_354" type="ev_type" route="route_side_3" depart="22754.69" />
    <vehicle id="veh_283" type="car_type" route="route_side_1" depart="22772.83" />
    <vehicle id="veh_260" type="car_type" route="route_side_1" depart="22788.63" />
    <vehicle id="veh_284" type="ev_type" route="route_main" depart="22850.75" />
    <vehicle id="veh_243" type="car_type" route="route_side_1" depart="22856.72" />
    <vehicle id="veh_245" type="ev_type" route="route_main" depart="22892.67" />
    <vehicle id="veh_322" type="ev_type" route="route_to_634" depart="22918.45" />
    <vehicle id="veh_253" type="car_type" route="route_side_2" depart="22924.01" />
    <vehicle id="veh_247" type="ev_type" route="route_main" depart="22925.48" />
    <vehicle id="veh_321" type="car_type" route="route_side_3" depart="22938.85" />
    <vehicle id="veh_203" type="ev_type" route="route_side_3" depart="22944.51" />
    <vehicle id="veh_252" type="car_type" route="route_side_3" depart="22955.13" />
    <vehicle id="veh_267" type="car_type" route="route_side_2" depart="22977.97" />
    <vehicle id="veh_290" type="ev_type" route="route_to_675" depart="23039.33" />
    <vehicle id="veh_277" type="ev_type" route="route_side_2" depart="23097.43" />
    <vehicle id="veh_248" type="ev_type" route="route_main" depart="23120.10" />
    <vehicle id="veh_301" type="ev_type" route="route_to_634" depart="23154.49" />
    <vehicle id="veh_285" type="ev_type" route="route_side_3" depart="23166.46" />
    <vehicle id="veh_264" type="ev_type" route="route_side_2" depart="23170.89" />
    <vehicle id="veh_317" type="ev_type" route="route_side_3" depart="23210.76" />
    <vehicle id="veh_229" type="car_type" route="route_side_3" depart="23269.83" />
    <vehicle id="veh_307" type="ev_type" route="route_side_1" depart="23273.69" />
    <vehicle id="veh_311" type="car_type" route="route_to_675" depart="23283.97" />
    <vehicle id="veh_263" type="ev_type" route="route_side_2" depart="23313.71" />
    <vehicle id="veh_202" type="car_type" route="route_to_634" depart="23325.84" />
    <vehicle id="veh_241" type="ev_type" route="route_to_634" depart="23349.84" />
    <vehicle id="veh_207" type="ev_type" route="route_main" depart="23366.99" />
    <vehicle id="veh_312" type="ev_type" route="route_to_675" depart="23382.21" />
    <vehicle id="veh_213" type="car_type" route="route_to_634" depart="23391.11" />
    <vehicle id="veh_242" type="ev_type" route="route_to_675" depart="23398.41" />
    <vehicle id="veh_255" type="ev_type" route="route_side_3" depart="23400.31" />
    <vehicle id="veh_223" type="ev_type" route="route_side_3" depart="23400.48" />
    <vehicle id="veh_347" type="ev_type" route="route_to_634" depart="23414.88" />
    <vehicle id="veh_294" type="car_type" route="route_side_3" depart="23420.77" />
    <vehicle id="veh_199" type="car_type" route="route_side_1" depart="23471.08" />
    <vehicle id="veh_286" type="ev_type" route="route_to_634" depart="23487.06" />
    <vehicle id="veh_187" type="ev_type" route="route_to_675" depart="23491.17" />
    <vehicle id="veh_296" type="car_type" route="route_side_1" depart="23505.96" />
    <vehicle id="veh_196" type="ev_type" route="route_side_1" depart="23520.64" />
    <vehicle id="veh_323" type="car_type" route="route_side_3" depart="23524.48" />
    <vehicle id="veh_340" type="ev_type" route="route_side_3" depart="23556.46" />
    <vehicle id="veh_238" type="ev_type" route="route_side_2" depart="23559.81" />
    <vehicle id="veh_308" type="ev_type" route="route_side_3" depart="23560.34" />
    <vehicle id="veh_320" type="car_type" route="route_to_675" depart="23574.25" />
    <vehicle id="veh_315" type="car_type" route="route_side_2" depart="23666.99" />
    <vehicle id="veh_200" type="ev_type" route="route_to_675" depart="23762.24" />
    <vehicle id="veh_281" type="ev_type" route="route_side_1" depart="23800.01" />
    <vehicle id="veh_327" type="ev_type" route="route_to_675" depart="23801.57" />
    <vehicle id="veh_189" type="car_type" route="route_side_3" depart="23814.95" />
    <vehicle id="veh_259" type="car_type" route="route_main" depart="23816.28" />
    <vehicle id="veh_278" type="ev_type" route="route_side_2" depart="23820.66" />
    <vehicle id="veh_209" type="car_type" route="route_to_675" depart="23824.97" />
    <vehicle id="veh_359" type="ev_type" route="route_to_675" depart="23843.19" />
    <vehicle id="veh_352" type="car_type" route="route_side_1" depart="23854.74" />
    <vehicle id="veh_214" type="ev_type" route="route_to_634" depart="23873.87" />
    <vehicle id="veh_309" type="ev_type" route="route_side_3" depart="23893.59" />
    <vehicle id="veh_300" type="ev_type" route="route_to_634" depart="23895.75" />
    <vehicle id="veh_225" type="car_type" route="route_to_634" depart="23898.45" />
    <vehicle id="veh_236" type="car_type" route="route_side_3" depart="23901.68" />
    <vehicle id="veh_190" type="ev_type" route="route_side_1" depart="23914.52" />
    <vehicle id="veh_316" type="ev_type" route="route_main" depart="23918.12" />
    <vehicle id="veh_265" type="car_type" route="route_main" depart="23944.69" />
    <vehicle id="veh_328" type="car_type" route="route_main" depart="23949.33" />
    <vehicle id="veh_287" type="car_type" route="route_side_1" depart="23956.07" />
    <vehicle id="veh_191" type="ev_type" route="route_side_3" depart="23969.07" />
    <vehicle id="veh_208" type="ev_type" route="route_side_3" depart="23987.87" />
    <vehicle id="veh_331" type="ev_type" route="route_side_1" depart="24011.01" />
    <vehicle id="veh_186" type="car_type" route="route_side_1" depart="24030.75" />
    <vehicle id="veh_270" type="car_type" route="route_side_3" depart="24037.49" />
    <vehicle id="veh_220" type="car_type" route="route_side_1" depart="24067.66" />
    <vehicle id="veh_233" type="ev_type" route="route_to_634" depart="24102.68" />
    <vehicle id="veh_269" type="car_type" route="route_side_1" depart="24106.19" />
    <vehicle id="veh_228" type="car_type" route="route_side_3" depart="24109.97" />
    <vehicle id="veh_276" type="car_type" route="route_side_2" depart="24118.58" />
    <vehicle id="veh_298" type="ev_type" route="route_side_1" depart="24122.85" />
    <vehicle id="veh_295" type="car_type" route="route_to_634" depart="24128.50" />
    <vehicle id="veh_305" type="ev_type" route="route_to_675" depart="24162.34" />
    <vehicle id="veh_357" type="ev_type" route="route_main" depart="24164.67" />
    <vehicle id="veh_250" type="ev_type" route="route_side_3" depart="24172.67" />
    <vehicle id="veh_319" type="car_type" route="route_side_1" depart="24196.06" />
    <vehicle id="veh_244" type="ev_type" route="route_side_3" depart="24253.60" />
    <vehicle id="veh_226" type="ev_type" route="route_side_3" depart="24287.52" />
    <vehicle id="veh_280" type="ev_type" route="route_main" depart="24300.57" />
    <vehicle id="veh_212" type="car_type" route="route_to_634" depart="24321.43" />
    <vehicle id="veh_358" type="ev_type" route="route_to_634" depart="24328.32" />
    <vehicle id="veh_204" type="car_type" route="route_to_634" depart="24348.94" />
    <vehicle id="veh_289" type="ev_type" route="route_side_3" depart="24353.40" />
    <vehicle id="veh_337" type="ev_type" route="route_to_675" depart="24368.35" />
    <vehicle id="veh_221" type="ev_type" route="route_side_1" depart="24377.01" />
    <vehicle id="veh_282" type="ev_type" route="route_side_1" depart="24378.09" />
    <vehicle id="veh_218" type="car_type" route="route_to_675" depart="24385.68" />
    <vehicle id="veh_271" type="ev_type" route="route_side_1" depart="24397.47" />
    <vehicle id="veh_205" type="car_type" route="route_to_675" depart="24429.95" />
    <vehicle id="veh_302" type="car_type" route="route_main" depart="24446.08" />
    <vehicle id="veh_336" type="car_type" route="route_side_2" depart="24457.38" />
    <vehicle id="veh_349" type="car_type" route="route_side_2" depart="24482.31" />
    <vehicle id="veh_330" type="ev_type" route="route_side_1" depart="24492.31" />
    <vehicle id="veh_256" type="ev_type" route="route_side_1" depart="24493.93" />
    <vehicle id="veh_235" type="car_type" route="route_side_1" depart="24536.50" />
    <vehicle id="veh_182" type="ev_type" route="route_to_675" depart="24541.83" />
    <vehicle id="veh_188" type="car_type" route="route_main" depart="24614.82" />
    <vehicle id="veh_217" type="ev_type" route="route_to_675" depart="24626.27" />
    <vehicle id="veh_313" type="car_type" route="route_side_2" depart="24664.11" />
    <vehicle id="veh_198" type="car_type" route="route_main" depart="24805.01" />
    <vehicle id="veh_338" type="car_type" route="route_side_2" depart="24815.80" />
    <vehicle id="veh_180" type="ev_type" route="route_side_1" depart="24831.05" />
    <vehicle id="veh_266" type="car_type" route="route_main" depart="24863.29" />
    <vehicle id="veh_343" type="ev_type" route="route_main" depart="24874.24" />
    <vehicle id="veh_344" type="car_type" route="route_to_634" depart="24885.43" />
    <vehicle id="veh_232" type="ev_type" route="route_to_675" depart="24918.15" />
    <vehicle id="veh_185" type="ev_type" route="route_to_634" depart="24932.94" />
    <vehicle id="veh_299" type="ev_type" route="route_to_675" depart="24933.19" />
    <vehicle id="veh_249" type="car_type" route="route_side_3" depart="24944.73" />
    <vehicle id="veh_237" type="ev_type" route="route_to_675" depart="24944.90" />
    <vehicle id="veh_251" type="ev_type" route="route_main" depart="24970.25" />
    <vehicle id="veh_275" type="ev_type" route="route_to_675" depart="24974.29" />
    <vehicle id="veh_183" type="ev_type" route="route_to_634" depart="24980.13" />
    <vehicle id="veh_345" type="ev_type" route="route_side_1" depart="25012.15" />
    <vehicle id="veh_355" type="ev_type" route="route_main" depart="25019.26" />
    <vehicle id="veh_222" type="car_type" route="route_to_634" depart="25030.13" />
    <vehicle id="veh_346" type="ev_type" route="route_to_675" depart="25053.98" />
    <vehicle id="veh_314" type="ev_type" route="route_side_2" depart="25056.00" />
    <vehicle id="veh_326" type="ev_type" route="route_side_1" depart="25066.28" />
    <vehicle id="veh_339" type="car_type" route="route_side_1" depart="25072.11" />
    <vehicle id="veh_181" type="ev_type" route="route_to_634" depart="25074.33" />
    <vehicle id="veh_215" type="ev_type" route="route_to_675" depart="25092.31" />
    <vehicle id="veh_231" type="ev_type" route="route_side_1" depart="25094.25" />