<routes>
    <vType id="car_type" accel="2.6" decel="4.5" length="5" maxSpeed="11.11" speedDev="0.1"/>
    <vType id="ev_type" accel="3.0" decel="4.5" length="5" maxSpeed="11.11" speedDev="0.1"/>
    <route id="route_main" edges="L_650_632 L_632_671 L_671_680" />
    <route id="route_side_1" edges="L_650_632 L_632_645 L_645_646" />
    <route id="route_side_2" edges="L_671_684 L_684_611" />
    <route id="route_side_3" edges="L_671_684 L_684_652" />
    <route id="route_to_634" edges="L_650_632 L_632_633 L_633_634" />
    <route id="route_to_675" edges="L_650_632 L_632_671 L_671_675" />
    <vehicle id="veh_4" type="ev_type" route="route_to_634" depart="95.53" />
    <vehicle id="veh_20" type="car_type" route="route_to_675" depart="257.05" />
    <vehicle id="veh_12" type="ev_type" route="route_side_3" depart="283.68" />
    <vehicle id="veh_2" type="car_type" route="route_to_634" depart="312.98" />
    <vehicle id="veh_3" type="ev_type" route="route_main" depart="337.30" />
    <vehicle id="veh_9" type="ev_type" route="route_side_2" depart="367.96" />
    <vehicle id="veh_18" type="car_type" route="route_side_2" depart="585.55" />
    <vehicle id="veh_14" type="car_type" route="route_to_634" depart="692.24" />
    <vehicle id="veh_15" type="ev_type" route="route_to_675" depart="820.43" />
    <vehicle id="veh_24" type="car_type" route="route_main" depart="824.57" />
    <vehicle id="veh_19" type="ev_type" route="route_to_675" depart="961.12" />
    <vehicle id="veh_22" type="ev_type" route="route_side_3" depart="971.81" />
    <vehicle id="veh_17" type="car_type" route="route_side_3" depart="1000.70" />
    <vehicle id="veh_8" type="ev_type" route="route_side_3" depart="1224.90" />
    <vehicle id="veh_25" type="ev_type" route="route_side_2" depart="1444.19" />
    <vehicle id="veh_28" type="car_type" route="route_to_675" depart="1651.87" />
    <vehicle id="veh_27" type="ev_type" route="route_to_675" depart="1797.23" />
    <vehicle id="veh_23" type="car_type" route="route_to_675" depart="2005.02" />
    <vehicle id="veh_6" type="ev_type" route="route_side_3" depart="2121.36" />
    <vehicle id="veh_13" type="ev_type" route="route_to_675" depart="2226.67" />
    <vehicle id="veh_5" type="ev_type" route="route_to_675" depart="2524.77" />
    <vehicle id="veh_21" type="car_type" route="route_to_634" depart="2624.86" />
    <vehicle id="veh_11" type="car_type" route="route_main" depart="2627.03" />
    <vehicle id="veh_1" type="ev_type" route="route_side_1" depart="2651.30" />
    <vehicle id="veh_0" type="car_type" route="route_main" depart="2669.58" />
    <vehicle id="veh_29" type="ev_type" route="route_side_1" depart="2681.96" />
    <vehicle id="veh_7" type="car_type" route="route_main" depart="2731.71" />
    <vehicle id="veh_10" type="ev_type" route="route_side_2" depart="3050.98" />
    <vehicle id="veh_16" type="ev_type" route="route_main" depart="3079.14" />
    <vehicle id="veh_26" type="ev_type" route="route_to_634" depart="3154.92" />
    <vehicle id="veh_40" type="ev_type" route="route_side_3" depart="3611.68" />
    <vehicle id="veh_47" type="ev_type" route="route_side_3" depart="3670.12" />
    <vehicle id="veh_39" type="car_type" route="route_side_2" depart="4001.59" />
    <vehicle id="veh_44" type="car_type" route="route_to_634" depart="4316.08" />
    <vehicle id="veh_55" type="car_type" route="route_to_675" depart="4324.14" />
    <vehicle id="veh_48" type="car_type" route="route_side_2" depart="4462.03" />
    <vehicle id="veh_41" type="car_type" route="route_to_675" depart="4548.20" />
    <vehicle id="veh_43" type="ev_type" route="route_to_675" depart="4674.40" />
    <vehicle id="veh_58" type="ev_type" route="route_main" depart="4817.11" />
    <vehicle id="veh_31" type="car_type" route="route_side_3" depart="4903.19" />
    <vehicle id="veh_35" type="ev_type" route="route_main" depart="4985.16" />
    <vehicle id="veh_57" type="ev_type" route="route_to_634" depart="5225.35" />
    <vehicle id="veh_42" type="ev_type" route="route_side_1" depart="5427.65" />
    <vehicle id="veh_32" type="car_type" route="route_side_1" depart="5434.29" />
    <vehicle id="veh_36" type="ev_type" route="route_side_3" depart="5504.81" />
    <vehicle id="veh_45" type="ev_type" route="route_side_1" depart="5541.76" />
    <vehicle id="veh_30" type="ev_type" route="route_to_675" depart="5704.51" />
    <vehicle id="veh_59" type="ev_type" route="route_side_1" depart="5718.38" />
    <vehicle id="veh_56" type="ev_type" route="route_to_675" depart="5939.56" />
    <vehicle id="veh_37" type="car_type" route="route_main" depart="6049.02" />
    <vehicle id="veh_38" type="ev_type" route="route_to_634" depart="6303.16" />
    <vehicle id="veh_51" type="car_type" route="route_to_634" depart="6357.00" />
    <vehicle id="veh_34" type="ev_type" route="route_side_1" depart="6451.49" />
    <vehicle id="veh_50" type="ev_type" route="route_side_3" depart="6537.68" />
    <vehicle id="veh_33" type="ev_type" route="route_main" depart="6699.97" />
    <vehicle id="veh_53" type="ev_type" route="route_to_634" depart="6740.76" />
    <vehicle id="veh_46" type="car_type" route="route_to_634" depart="6906.58" />
    <vehicle id="veh_54" type="ev_type" route="route_side_1" depart="6944.09" />
    <vehicle id="veh_52" type="ev_type" route="route_side_3" depart="7008.66" />
    <vehicle id="veh_49" type="ev_type" route="route_to_634" depart="7009.02" />
    <vehicle id="veh_74" type="car_type" route="route_main" depart="7382.12" />
    <vehicle id="veh_84" type="ev_type" route="route_side_2" depart="7405.79" />
    <vehicle id="veh_87" type="ev_type" route="route_side_1" depart="7446.68" />
    <vehicle id="veh_63" type="ev_type" route="route_to_634" depart="7676.32" />
    <vehicle id="veh_71" type="ev_type" route="route_side_3" depart="7704.66" />
    <vehicle id="veh_76" type="car_type" route="route_side_1" depart="7798.72" />
    <vehicle id="veh_89" type="car_type" route="route_to_634" depart="8086.38" />
    <vehicle id="veh_70" type="ev_type" route="route_main" depart="8095.16" />
    <vehicle id="veh_72" type="ev_type" route="route_side_3" depart="8099.30" />
    <vehicle id="veh_62" type="ev_type" route="route_side_1" depart="8202.52" />
    <vehicle id="veh_82" type="ev_type" route="route_side_1" depart="8268.15" />
    <vehicle id="veh_78" type="car_type" route="route_side_1" depart="8564.30" />
    <vehicle id="veh_69" type="car_type" route="route_main" depart="8649.44" />
    <vehicle id="veh_88" type="ev_type" route="route_side_1" depart="8653.59" />
    <vehicle id="veh_80" type="car_type" route="route_side_2" depart="8722.83" />
    <vehicle id="veh_67" type="ev_type" route="route_side_3" depart="8881.29" />
    <vehicle id="veh_64" type="car_type" route="route_to_634" depart="9274.36" />
    <vehicle id="veh_60" type="ev_type" route="route_to_675" depart="9471.97" />
    <vehicle id="veh_68" type="car_type" route="route_to_675" depart="9552.44" />
    <vehicle id="veh_66" type="ev_type" route="route_main" depart="9572.34" />
    <vehicle id="veh_81" type="car_type" route="route_to_634" depart="9582.74" />
    <vehicle id="veh_83" type="car_type" route="route_to_634" depart="9848.65" />
    <vehicle id="veh_65" type="ev_type" route="route_side_3" depart="10106.99" />
    <vehicle id="veh_73" type="car_type" route="route_side_3" depart="10108.88" />
    <vehicle id="veh_61" type="ev_type" route="route_main" depart="10294.69" />
    <vehicle id="veh_77" type="ev_type" route="route_side_1" depart="10312.74" />
    <vehicle id="veh_85" type="ev_type" route="route_to_634" depart="10509.79" />
    <vehicle id="veh_79" type="car_type" route="route_side_2" depart="10535.47" />
    <vehicle id="veh_86" type="ev_type" route="route_main" depart="10658.80" />
    <vehicle id="veh_75" type="car_type" route="route_main" depart="10688.39" />
    <vehicle id="veh_95" type="car_type" route="route_main" depart="10833.54" />
    <vehicle id="veh_112" type="car_type" route="route_to_634" depart="10834.81" />
    <vehicle id="veh_115" type="ev_type" route="route_side_1" depart="10950.58" />
    <vehicle id="veh_109" type="ev_type" route="route_side_2" depart="10958.71" />
    <vehicle id="veh_90" type="ev_type" route="route_to_634" depart="11095.14" />
    <vehicle id="veh_108" type="car_type" route="route_main" depart="11132.27" />
    <vehicle id="veh_105" type="ev_type" route="route_to_634" depart="11558.27" />
    <vehicle id="veh_107" type="ev_type" route="route_side_3" depart="11704.04" />
    <vehicle id="veh_103" type="car_type" route="route_side_1" depart="11752.08" />
    <vehicle id="veh_99" type="car_type" route="route_side_2" depart="11825.95" />
    <vehicle id="veh_102" type="car_type" route="route_to_634" depart="11877.76" />
    <vehicle id="veh_93" type="ev_type" route="route_side_2" depart="12224.83" />
    <vehicle id="veh_111" type="ev_type" route="route_to_675" depart="12390.61" />
    <vehicle id="veh_94" type="car_type" route="route_side_2" depart="12446.01" />
    <vehicle id="veh_97" type="ev_type" route="route_side_1" depart="12621.18" />
    <vehicle id="veh_91" type="car_type" route="route_to_634" depart="12682.02" />
    <vehicle id="veh_101" type="car_type" route="route_to_675" depart="12704.19" />
    <vehicle id="veh_104" type="car_type" route="route_to_675" depart="12791.61" />
    <vehicle id="veh_114" type="ev_type" route="route_side_2" depart="12897.03" />
    <vehicle id="veh_106" type="ev_type" route="route_to_675" depart="13083.26" />
    <vehicle id="veh_110" type="ev_type" route="route_side_1" depart="13093.61" />
    <vehicle id="veh_117" type="ev_type" route="route_side_1" depart="13200.96" />
    <vehicle id="veh_92" type="car_type" route="route_side_1" depart="13211.01" />
    <vehicle id="veh_100" type="ev_type" route="route_to_634" depart="13332.74" />
    <vehicle id="veh_119" type="ev_type" route="route_to_634" depart="13498.12" />
    <vehicle id="veh_98" type="ev_type" route="route_side_2" depart="13971.11" />
    <vehicle id="veh_118" type="ev_type" route="route_to_634" depart="13982.88" />
    <vehicle id="veh_116" type="ev_type" route="route_main" depart="14036.13" />
    <vehicle id="veh_113" type="ev_type" route="route_to_675" depart="14054.14" />
    <vehicle id="veh_96" type="car_type" route="route_to_634" depart="14385.95" />
    <vehicle id="veh_134" type="car_type" route="route_main" depart="14790.25" />
    <vehicle id="veh_132" type="ev_type" route="route_main" depart="14815.23" />
    <vehicle id="veh_136" type="ev_type" route="route_to_634" depart="14816.32" />
    <vehicle id="veh_145" type="ev_type" route="route_side_1" depart="15090.62" />
    <vehicle id="veh_140" type="car_type" route="route_to_675" depart="15109.33" />
    <vehicle id="veh_126" type="ev_type" route="route_side_3" depart="15200.76" />
    <vehicle id="veh_128" type="car_type" route="route_side_1" depart="15202.52" />
    <vehicle id="veh_137" type="car_type" route="route_side_1" depart="15317.00" />
    <vehicle id="veh_124" type="car_type" route="route_side_1" depart="15360.50" />
    <vehicle id="veh_148" type="ev_type" route="route_main" depart="15493.95" />
    <vehicle id="veh_129" type="car_type" route="route_side_3" depart="15581.74" />
    <vehicle id="veh_127" type="car_type" route="route_side_3" depart="15658.77" />
    <vehicle id="veh_130" type="car_type" route="route_side_2" depart="15664.13" />
    <vehicle id="veh_125" type="car_type" route="route_main" depart="15777.15" />
    <vehicle id="veh_144" type="car_type" route="route_side_2" depart="15848.64" />
    <vehicle id="veh_143" type="car_type" route="route_side_2" depart="16225.64" />
    <vehicle id="veh_138" type="car_type" route="route_main" depart="16271.71" />
    <vehicle id="veh_147" type="car_type" route="route_to_634" depart="16448.78" />
    <vehicle id="veh_133" type="car_type" route="route_side_1" depart="16490.12" />
    <vehicle id="veh_149" type="ev_type" route="route_to_634" depart="16583.98" />
    <vehicle id="veh_146" type="car_type" route="route_side_3" depart="16838.34" />
    <vehicle id="veh_139" type="car_type" route="route_to_675" depart="16989.95" />
    <vehicle id="veh_135" type="ev_type" route="route_to_675" depart="17231.14" />
    <vehicle id="veh_123" type="car_type" route="route_side_3" depart="17288.05" />
    <vehicle id="veh_142" type="car_type" route="route_to_675" depart="17452.86" />
    <vehicle id="veh_120" type="car_type" route="route_side_1" depart="17512.58" />
    <vehicle id="veh_121" type="car_type" route="route_side_1" depart="17573.10" />
    <vehicle id="veh_141" type="ev_type" route="route_to_675" depart="17714.78" />
    <vehicle id="veh_122" type="ev_type" route="route_to_675" depart="17728.15" />
    <vehicle id="veh_131" type="ev_type" route="route_to_675" depart="17932.14" />
    <vehicle id="veh_156" type="car_type" route="route_side_1" depart="18087.93" />
    <vehicle id="veh_175" type="ev_type" route="route_side_1" depart="18542.99" />
    <vehicle id="veh_152" type="car_type" route="route_to_675" depart="18610.89" />
    <vehicle id="veh_178" type="ev_type" route="route_main" depart="18744.60" />
    <vehicle id="veh_160" type="ev_type" route="route_side_3" depart="18878.34" />
    <vehicle id="veh_171" type="car_type" route="route_to_675" depart="18998.32" />
    <vehicle id="veh_155" type="car_type" route="route_to_675" depart="19117.51" />
    <vehicle id="veh_174" type="ev_type" route="route_side_2" depart="19150.95" />
    <vehicle id="veh_177" type="ev_type" route="route_side_3" depart="19191.17" />
    <vehicle id="veh_158" type="car_type" route="route_side_3" depart="19491.99" />
    <vehicle id="veh_168" type="car_type" route="route_to_634" depart="19536.27" />
    <vehicle id="veh_150" type="ev_type" route="route_side_3" depart="19591.78" />
    <vehicle id="veh_170" type="car_type" route="route_side_3" depart="19620.25" />
    <vehicle id="veh_163" type="ev_type" route="route_to_675" depart="19864.65" />
    <vehicle id="veh_166" type="car_type" route="route_to_634" depart="20143.63" />
    <vehicle id="veh_157" type="ev_type" route="route_side_3" depart="20200.59" />
    <vehicle id="veh_167" type="car_type" route="route_side_3" depart="20205.55" />
    <vehicle id="veh_172" type="car_type" route="route_side_3" depart="20256.29" />
    <vehicle id="veh_153" type="ev_type" route="route_to_634" depart="20389.87" />
    <vehicle id="veh_176" type="ev_type" route="route_side_1" depart="20543.11" />
    <vehicle id="veh_173" type="ev_type" route="route_main" depart="20568.76" />
    <vehicle id="veh_159" type="car_type" route="route_side_1" depart="20586.05" />
    <vehicle id="veh_162" type="car_type" route="route_main" depart="20802.31" />
    <vehicle id="veh_151" type="ev_type" route="route_side_3" depart="20857.45" />
    <vehicle id="veh_165" type="ev_type" route="route_side_1" depart="20885.10" />
    <vehicle id="veh_154" type="car_type" route="route_main" depart="20946.32" />
    <vehicle id="veh_161" type="car_type" route="route_main" depart="21213.58" />
    <vehicle id="veh_169" type="car_type" route="route_side_3" depart="21229.95" />
    <vehicle id="veh_164" type="ev_type" route="route_side_1" depart="21302.89" />
    <vehicle id="veh_179" type="ev_type" route="route_to_634" depart="21405.82" />
    <vehicle id="veh_340" type="car_type" route="route_side_2" depart="21629.15" />
    <vehicle id="veh_239" type="ev_type" route="route_side_2" depart="21650.93" />
    <vehicle id="veh_269" type="ev_type" route="route_to_634" depart="21743.50" />
    <vehicle id="veh_196" type="ev_type" route="route_to_675" depart="21744.93" />
    <vehicle id="veh_240" type="ev_type" route="route_side_2" depart="21763.86" />
    <vehicle id="veh_253" type="ev_type" route="route_to_634" depart="21816.83" />
    <vehicle id="veh_264" type="ev_type" route="route_side_1" depart="21857.08" />
    <vehicle id="veh_333" type="car_type" route="route_side_1" depart="21865.90" />
    <vehicle id="veh_246" type="ev_type" route="route_side_3" depart="21866.70" />
    <vehicle id="veh_316" type="car_type" route="route_to_675" depart="21889.14" />
    <vehicle id="veh_248" type="car_type" route="route_side_2" depart="21906.65" />
    <vehicle id="veh_225" type="ev_type" route="route_side_1" depart="21908.21" />
    <vehicle id="veh_281" type="ev_type" route="route_side_3" depart="21917.02" />
    <vehicle id="veh_228" type="ev_type" route="route_main" depart="21934.99" />
    <vehicle id="veh_312" type="car_type" route="route_side_3" depart="21958.96" />
    <vehicle id="veh_207" type="car_type" route="route_side_1" depart="21966.84" />
    <vehicle id="veh_242" type="ev_type" route="route_side_3" depart="21969.32" />
    <vehicle id="veh_278" type="ev_type" route="route_to_675" depart="21976.56" />
    <vehicle id="veh_212" type="car_type" route="route_side_3" depart="21979.94" />
    <vehicle id="veh_203" type="ev_type" route="route_side_2" depart="21989.16" />
    <vehicle id="veh_245" type="ev_type" route="route_side_3" depart="22010.71" />
    <vehicle id="veh_234" type="car_type" route="route_side_2" depart="22030.40" />
    <vehicle id="veh_310" type="ev_type" route="route_main" depart="22054.49" />
    <vehicle id="veh_351" type="ev_type" route="route_side_1" depart="22075.78" />
    <vehicle id="veh_356" type="ev_type" route="route_main" depart="22106.73" />
    <vehicle id="veh_330" type="ev_type" route="route_to_634" depart="22115.22" />
    <vehicle id="veh_296" type="ev_type" route="route_to_634" depart="22120.71" />
    <vehicle id="veh_263" type="ev_type" route="route_to_675" depart="22136.36" />
    <vehicle id="veh_247" type="car_type" route="route_main" depart="22146.22" />
    <vehicle id="veh_186" type="car_type" route="route_to_675" depart="22194.16" />
    <vehicle id="veh_256" type="ev_type" route="route_side_1" depart="22225.73" />
    <vehicle id="veh_328" type="car_type" route="route_side_1" depart="22230.25" />
    <vehicle id="veh_275" type="car_type" route="route_side_2" depart="22253.36" />
    <vehicle id="veh_190" type="ev_type" route="route_side_3" depart="22254.22" />
    <vehicle id="veh_235" type="ev_type" route="route_to_675" depart="22266.54" />
    <vehicle id="veh_197" type="ev_type" route="route_side_1" depart="22317.70" />
    <vehicle id="veh_191" type="ev_type" route="route_side_2" depart="22361.98" />
    <vehicle id="veh_344" type="ev_type" route="route_side_2" depart="22388.42" />
    <vehicle id="veh_195" type="ev_type" route="route_side_2" depart="22407.20" />
    <vehicle id="veh_250" type="car_type" route="route_to_634" depart="22412.47" />
    <vehicle id="veh_233" type="ev_type" route="route_side_2" depart="22429.94" />
    <vehicle id="veh_306" type="ev_type" route="route_side_3" depart="22440.82" />
    <vehicle id="veh_320" type="ev_type" route="route_main" depart="22445.17" />
    <vehicle id="veh_337" type="car_type" route="route_main" depart="22453.94" />
    <vehicle id="veh_198" type="ev_type" route="route_side_1" depart="22458.76" />
    <vehicle id="veh_229" type="ev_type" route="route_to_675" depart="22475.90" />
    <vehicle id="veh_219" type="ev_type" route="route_side_3" depart="22477.91" />
    <vehicle id="veh_335" type="car_type" route="route_to_675" depart="22500.35" />
    <vehicle id="veh_193" type="car_type" route="route_side_3" depart="22508.18" />
    <vehicle id="veh_200" type="ev_type" route="route_to_675" depart="22522.48" />
    <vehicle id="veh_353" type="car_type" route="route_side_1" depart="22525.09" />
    <vehicle id="veh_359" type="car_type" route="route_main" depart="22552.05" />
    <vehicle id="veh_255" type="ev_type" route="route_side_1" depart="22552.73" />
    <vehicle id="veh_215" type="car_type" route="route_to_675" depart="22572.30" />
    <vehicle id="veh_298" type="car_type" route="route_main" depart="22594.49" />
    <vehicle id="veh_236" type="ev_type" route="route_side_3" depart="22595.40" />
    <vehicle id="veh_192" type="ev_type" route="route_side_3" depart="22601.72" />
    <vehicle id="veh_259" type="ev_type" route="route_to_675" depart="22617.79" />
    <vehicle id="veh_258" type="car_type" route="route_side_3" depart="22648.53" />
    <vehicle id="veh_338" type="ev_type" route="route_to_634" depart="22665.14" />
    <vehicle id="veh_238" type="car_type" route="route_side_1" depart="22666.49" />
    <vehicle id="veh_181" type="ev_type" route="route_side_2" depart="22675.01" />
    <vehicle id="veh_334" type="car_type" route="route_to_634" depart="22676.96" />
    <vehicle id="veh_324" type="ev_type" route="route_to_675" depart="22678.08" />
    <vehicle id="veh_307" type="car_type" route="route_main" depart="22745.43" />
    <vehicle id="veh_350" type="ev_type" route="route_side_2" depart="22776.19" />
    <vehicle id="veh_315" type="ev_type" route="route_side_2" depart="22818.82" />
    <vehicle id="veh_299" type="car_type" route="route_side_3" depart="22823.55" />
    <vehicle id="veh_211" type="ev_type" route="route_to_675" depart="22828.43" />
    <vehicle id="veh_277" type="car_type" route="route_side_3" depart="22852.66" />
    <vehicle id="veh_222" type="ev_type" route="route_side_1" depart="22877.37" />
    <vehicle id="veh_285" type="ev_type" route="route_to_634" depart="22902.41" />
    <vehicle id="veh_358" type="car_type" route="route_to_634" depart="22916.79" />
    <vehicle id="veh_304" type="ev_type" route="route_to_634" depart="22957.96" />
    <vehicle id="veh_180" type="ev_type" route="route_to_634" depart="22969.37" />
    <vehicle id="veh_308" type="ev_type" route="route_side_3" depart="22989.88" />
    <vehicle id="veh_205" type="car_type" route="route_side_3" depart="23027.96" />
    <vehicle id="veh_257" type="ev_type" route="route_main" depart="23070.66" />
    <vehicle id="veh_262" type="car_type" route="route_side_1" depart="23130.50" />
    <vehicle id="veh_326" type="ev_type" route="route_side_2" depart="23150.47" />
    <vehicle id="veh_214" type="ev_type" route="route_side_1" depart="23167.75" />
    <vehicle id="veh_184" type="ev_type" route="route_side_2" depart="23169.01" />
    <vehicle id="veh_266" type="car_type" route="route_side_2" depart="23180.95" />
    <vehicle id="veh_286" type="car_type" route="route_to_675" depart="23191.35" />
    <vehicle id="veh_331" type="ev_type" route="route_side_2" depart="23254.45" />
    <vehicle id="veh_292" type="ev_type" route="route_main" depart="23261.21" />
    <vehicle id="veh_284" type="ev_type" route="route_to_634" depart="23263.11" />
    <vehicle id="veh_243" type="ev_type" route="route_side_2" depart="23289.83" />
    <vehicle id="veh_274" type="ev_type" route="route_side_1" depart="23293.80" />
    <vehicle id="veh_230" type="car_type" route="route_side_2" depart="23303.74" />
    <vehicle id="veh_303" type="ev_type" route="route_to_634" depart="23343.63" />
    <vehicle id="veh_302" type="ev_type" route="route_to_675" depart="23362.71" />
    <vehicle id="veh_342" type="car_type" route="route_to_675" depart="23388.22" />
    <vehicle id="veh_293" type="ev_type" route="route_side_1" depart="23394.15" />
    <vehicle id="veh_297" type="ev_type" route="route_to_634" depart="23429.67" />
    <vehicle id="veh_352" type="ev_type" route="route_side_2" depart="23511.07" />
    <vehicle id="veh_182" type="ev_type" route="route_side_3" depart="23537.59" />
    <vehicle id="veh_268" type="car_type" route="route_to_634" depart="23543.93" />
    <vehicle id="veh_287" type="ev_type" route="route_side_2" depart="23577.19" />
    <vehicle id="veh_291" type="ev_type" route="route_main" depart="23588.11" />
    <vehicle id="veh_226" type="car_type" route="route_side_3" depart="23598.63" />
    <vehicle id="veh_224" type="car_type" route="route_side_2" depart="23600.85" />
    <vehicle id="veh_199" type="ev_type" route="route_main" depart="23630.29" />
    <vehicle id="veh_327" type="ev_type" route="route_side_3" depart="23637.34" />
    <vehicle id="veh_204" type="ev_type" route="route_side_2" depart="23672.87" />
    <vehicle id="veh_272" type="car_type" route="route_to_634" depart="23713.64" />
    <vehicle id="veh_261" type="car_type" route="route_to_675" depart="23723.24" />
    <vehicle id="veh_188" type="ev_type" route="route_side_3" depart="23730.81" />
    <vehicle id="veh_206" type="car_type" route="route_main" depart="23731.55" />
    <vehicle id="veh_217" type="ev_type" route="route_to_675" depart="23732.91" />
    <vehicle id="veh_265" type="ev_type" route="route_side_2" depart="23742.16" />
    <vehicle id="veh_237" type="ev_type" route="route_to_634" depart="23748.45" />
    <vehicle id="veh_208" type="car_type" route="route_to_675" depart="23761.48" />
    <vehicle id="veh_270" type="ev_type" route="route_side_2" depart="23773.37" />
    <vehicle id="veh_201" type="ev_type" route="route_to_634" depart="23786.09" />
    <vehicle id="veh_329" type="car_type" route="route_side_3" depart="23830.96" />
    <vehicle id="veh_318" type="ev_type" route="route_side_2" depart="23856.48" />
    <vehicle id="veh_189" type="car_type" route="route_main" depart="23913.90" />
    <vehicle id="veh_227" type="ev_type" route="route_side_3" depart="23925.25" />
    <vehicle id="veh_210" type="ev_type" route="route_side_3" depart="23981.48" />
    <vehicle id="veh_220" type="ev_type" route="route_to_634" depart="24005.48" />
    <vehicle id="veh_185" type="ev_type" route="route_side_2" depart="24007.95" />
    <vehicle id="veh_345" type="ev_type" route="route_side_2" depart="24039.95" />
    <vehicle id="veh_346" type="car_type" route="route_to_675" depart="24051.08" />
    <vehicle id="veh_260" type="car_type" route="route_main" depart="24074.59" />
    <vehicle id="veh_279" type="ev_type" route="route_side_3" depart="24097.23" />
    <vehicle id="veh_241" type="ev_type" route="route_side_2" depart="24110.70" />
    <vehicle id="veh_267" type="ev_type" route="route_side_2" depart="24119.04" />
    <vehicle id="veh_232" type="ev_type" route="route_side_2" depart="24130.28" />
    <vehicle id="veh_294" type="car_type" route="route_to_634" depart="24139.48" />
    <vehicle id="veh_290" type="car_type" route="route_side_1" depart="24155.22" />
    <vehicle id="veh_313" type="car_type" route="route_main" depart="24200.80" />
    <vehicle id="veh_357" type="car_type" route="route_to_675" depart="24207.18" />
    <vehicle id="veh_349" type="ev_type" route="route_side_2" depart="24236.50" />
    <vehicle id="veh_194" type="ev_type" route="route_main" depart="24296.49" />
    <vehicle id="veh_249" type="ev_type" route="route_to_634" depart="24352.00" />
    <vehicle id="veh_216" type="car_type" route="route_to_634" depart="24388.71" />
    <vehicle id="veh_343" type="car_type" route="route_side_2" depart="24392.67" />
    <vehicle id="veh_202" type="car_type" route="route_main" depart="24400.05" />
    <vehicle id="veh_209" type="ev_type" route="route_to_634" depart="24417.49" />
    <vehicle id="veh_348" type="car_type" route="route_side_2" depart="24439.00" />
    <vehicle id="veh_325" type="ev_type" route="route_side_2" depart="24466.12" />
    <vehicle id="veh_355" type="ev_type" route="route_side_2" depart="24495.24" />
    <vehicle id="veh_280" type="ev_type" route="route_side_3" depart="24528.84" />
    <vehicle id="veh_276" type="ev_type" route="route_to_675" depart="24531.28" />
    <vehicle id="veh_300" type="car_type" route="route_side_2" depart="24553.98" />
    <vehicle id="veh_273" type="ev_type" route="route_to_675" depart="24557.12" />
    <vehicle id="veh_283" type="ev_type" route="route_to_634" depart="24569.74" />
    <vehicle id="veh_218" type="ev_type" route="route_side_1" depart="24590.63" />
    <vehicle id="veh_301" type="ev_type" route="route_side_2" depart="24614.91" />
    <vehicle id="veh_221" type="ev_type" route="route_side_3" depart="24663.43" />
    <vehicle id="veh_317" type="ev_type" route="route_to_675" depart="24693.63" />
    <vehicle id="veh_311" type="car_type" route="route_side_2" depart="24730.92" />
    <vehicle id="veh_319" type="car_type" route="route_side_3" depart="24740.58" />
    <vehicle id="veh_323" type="car_type" route="route_to_675" depart="24741.29" />
    <vehicle id="veh_223" type="ev_type" route="route_side_2" depart="24769.15" />
    <vehicle id="veh_288" type="car_type" route="route_side_3" depart="24771.05" />
    <vehicle id="veh_213" type="car_type" route="route_to_675" depart="24809.67" />
    <vehicle id="veh_183" type="car_type" route="route_to_634" depart="24832.12" />
    <vehicle id="veh_332" type="car_type" route="route_side_3" depart="24844.35" />
    <vehicle id="veh_347" type="ev_type" route="route_main" depart="24852.25" />
    <vehicle id="veh_251" type="ev_type" route="route_side_3" depart="24870.62" />
    <vehicle id="veh_254" type="car_type" route="route_main" depart="25011.32" />
    <vehicle id="veh_271" type="ev_type" route="route_side_1" depart="25062.88" />
    <vehicle id="veh_244" type="ev_type" route="route_side_1" depart="25075.79" />
    <vehicle id="veh_354" type="car_type" route="route_side_3" depart="25082.58" />
    <vehicle id="veh_314" type="ev_type" route="route_to_675" depart="25091.84" />
    <vehicle id="veh_282" type="ev_type" route="route_main" depart="25092.67" />
    <vehicle id="veh_289" type="ev_type" route="route_main" depart="25103.33" />
    <vehicle id="veh_341" type="car_type" route="route_to_675" depart="25104.97" />
    <vehicle id="veh_339" type="car_type" route="route_main" depart="25120.60" />
    <vehicle id="veh_322" type="car_type" route="route_side_3" depart="25122.02" />
    <vehicle id="veh_295" type="ev_type" route="route_side_3" depart="25128.88" />
    <vehicle id="veh_187" type="ev_type" route="route_side_1" depart="25130.60" />
    <vehicle id="veh_305" type="car_type" route="route_side_1" depart="25130.79" />
    <vehicle id="veh_309" type="car_type" route="route_to_675" depart="25130.95" />